Circuit: * C:\Users\Ward\Dropbox\Work\Revolution\RPDG_Hardware\RL0018\Draft1.asc

Direct Newton iteration failed to find .op point.  (Use ".option noopiter" to skip.)
Starting Gmin stepping
Gmin = 10
Gmin = 1.07374
Gmin = 0.115292
Gmin = 0.0123794
Gmin = 0.00132923
Gmin = 0.000142725
Gmin = 1.5325e-005
Gmin = 1.6455e-006
Gmin = 1.76685e-007
Gmin = 1.89714e-008
Gmin = 2.03704e-009
Gmin = 2.18725e-010
Gmin = 2.34854e-011
Gmin = 2.52173e-012
Gmin = 2.70769e-013
Gmin = 0
Gmin stepping succeeded in finding the operating point.

Heightened Def Con from 2.05438e-009 to 3.07e-009
Heightened Def Con from 3.11102e-009 +to 5.11102e-009

Date: Fri Aug 24 17:06:30 2018
Total elapsed time: 0.577 seconds.

tnom = 27
temp = 27
method = modified trap
totiter = 7202
traniter = 6539
tranpoints = 1519
accept = 1365
rejected = 157
matrix size = 88
fillins = 67
solver = Normal
Thread vector: 16.4/11.7[2] 15.2/7.6[2] 6.0/4.7[2] 0.7/2.2[1]  2592/500
Matrix Compiler1: 8.44 KB object code size  4.7/3.2/[1.3]
Matrix Compiler2: 8.90 KB object code size  2.6/2.8/[1.2]

