Circuit: * C:\Users\Ward\Dropbox\Work\Revolution\RPDG_Hardware\RL0018\IL300_Current_Measurement.asc

Direct Newton iteration failed to find .op point.  (Use ".option noopiter" to skip.)
Starting Gmin stepping
Gmin = 10
Gmin = 1.07374
Gmin = 0.115292
Gmin = 0.0123794
Gmin = 0.00132923
Gmin = 0.000142725
Gmin = 1.5325e-005
Gmin = 1.6455e-006
Gmin = 1.76685e-007
Gmin = 1.89714e-008
Gmin = 2.03704e-009
Gmin = 2.18725e-010
Gmin = 2.34854e-011
Gmin = 2.52173e-012
Gmin = 2.70769e-013
Gmin = 0
Gmin stepping succeeded in finding the operating point.


Date: Thu Jun 28 02:31:52 2018
Total elapsed time: 0.474 seconds.

tnom = 27
temp = 27
method = modified trap
totiter = 7477
traniter = 7048
tranpoints = 3441
accept = 3100
rejected = 341
matrix size = 40
fillins = 32
solver = Normal
Matrix Compiler1: 3.59 KB object code size  1.9/1.6/[0.3]
Matrix Compiler2: 3.98 KB object code size  1.5/1.4/[0.6]

