Circuit: * C:\Users\Ward\Dropbox\Work\Revolution\RPDG_Hardware\RL0018\IL300 example 2.asc

Direct Newton iteration failed to find .op point.  (Use ".option noopiter" to skip.)
Starting Gmin stepping
Gmin = 10
Gmin = 1.07374
Gmin = 0.115292
Gmin = 0.0123794
Gmin = 0.00132923
Gmin = 0.000142725
Gmin = 1.5325e-005
Gmin = 1.6455e-006
Gmin = 1.76685e-007
Gmin = 1.89714e-008
Gmin = 2.03704e-009
Gmin = 2.18725e-010
Gmin = 2.34854e-011
Gmin = 2.52173e-012
Gmin = 2.70769e-013
Gmin = 0
Gmin stepping succeeded in finding the operating point.


Date: Mon Jun 25 16:27:24 2018
Total elapsed time: 0.434 seconds.

tnom = 27
temp = 27
method = modified trap
totiter = 2707
traniter = 2269
tranpoints = 1044
accept = 1044
rejected = 0
matrix size = 22
fillins = 11
solver = Normal
Matrix Compiler1: 1.21 KB object code size  1.0/0.5/[0.1]
Matrix Compiler2: 1.91 KB object code size  0.5/1.1/[0.4]

