Circuit: * C:\Users\Ward\Dropbox\Work\Revolution\RPDG_Hardware\RL0018\IL300 example 3.asc

Direct Newton iteration failed to find .op point.  (Use ".option noopiter" to skip.)
Starting Gmin stepping
Gmin = 10
Gmin = 1.07374
vernier = 0.5
vernier = 0.25
vernier = 0.125
vernier = 0.0625
vernier = 0.03125
Gmin = 1.0412
vernier = 0.015625
vernier = 0.0078125
Gmin = 1.0132
vernier = 0.00390625
vernier = 0.00195313
Gmin = 1.00827
vernier = 0.00260417
vernier = 0.00130208
Gmin = 1.00515
vernier = 0.000651042
vernier = 0.000868055
vernier = 0.000434028
Gmin = 1.00434
vernier = 0.000578703
vernier = 0.000434027
Gmin = 1.00339
Gmin = 0
Gmin stepping failed

Starting source stepping with srcstepmethod=0
Source Step = 3.0303%
Source Step = 33.3333%
Source Step = 63.6364%
Source Step = 93.9394%
Source stepping succeeded in finding the operating point.


Date: Tue Jun 26 14:32:41 2018
Total elapsed time: 1.619 seconds.

tnom = 27
temp = 27
method = modified trap
totiter = 7255
traniter = 2424
tranpoints = 1117
accept = 1087
rejected = 30
matrix size = 34
fillins = 30
solver = Normal
Thread vector: 21.5/11.4[2] 39.5/20.1[2] 3.6/9.5[1] 0.3/1.0[1]  2592/500
Matrix Compiler1: 2.32 KB object code size  1.9/0.9/[0.4]
Matrix Compiler2: 3.58 KB object code size  0.9/1.6/[0.5]

